# generated using pymatgen
data_PdO
_symmetry_space_group_name_H-M   'P 1'
_cell_length_a   3.05360411
_cell_length_b   3.05360411
_cell_length_c   5.37125679
_cell_angle_alpha   90.00000000
_cell_angle_beta   90.00000000
_cell_angle_gamma   90.00000000
_symmetry_Int_Tables_number   1
_chemical_formula_structural   PdO
_chemical_formula_sum   'Pd2 O2'
_cell_volume   50.08427352
_cell_formula_units_Z   2
loop_
 _symmetry_equiv_pos_site_id
 _symmetry_equiv_pos_as_xyz
  1  'x, y, z'
loop_
 _atom_type_symbol
 _atom_type_oxidation_number
  Pd2+  2.0
  O2-  -2.0
loop_
 _atom_site_type_symbol
 _atom_site_label
 _atom_site_symmetry_multiplicity
 _atom_site_fract_x
 _atom_site_fract_y
 _atom_site_fract_z
 _atom_site_occupancy
  Pd2+  Pd0  1  0.50000000  0.00000000  0.50000000  1
  Pd2+  Pd1  1  0.00000000  0.50000000  0.00000000  1
  O2-  O2  1  0.00000000  0.00000000  0.75000000  1
  O2-  O3  1  0.00000000  0.00000000  0.25000000  1
